! Program Version,EnergyPlus, Version 25.1.0-acda84e38d (No OpenGL), YMD=2024.12.18 21:11,
! Output:Meter Objects (applicable to this run)
Output:Meter,EnergyTransfer:Facility,hourly; !- [J]
Output:Meter:Cumulative,EnergyTransfer:Facility,hourly; !- [J]
Output:Meter,EnergyTransfer:Building,hourly; !- [J]
Output:Meter:Cumulative,EnergyTransfer:Building,hourly; !- [J]
Output:Meter,EnergyTransfer:Zone:CABINE,hourly; !- [J]
Output:Meter:Cumulative,EnergyTransfer:Zone:CABINE,hourly; !- [J]
Output:Meter,Heating:EnergyTransfer,hourly; !- [J]
Output:Meter:Cumulative,Heating:EnergyTransfer,hourly; !- [J]
Output:Meter,Heating:EnergyTransfer:Zone:CABINE,hourly; !- [J]
Output:Meter:Cumulative,Heating:EnergyTransfer:Zone:CABINE,hourly; !- [J]
Output:Meter,General:Heating:EnergyTransfer,hourly; !- [J]
Output:Meter:Cumulative,General:Heating:EnergyTransfer,hourly; !- [J]
Output:Meter,General:Heating:EnergyTransfer:Zone:CABINE,hourly; !- [J]
Output:Meter:Cumulative,General:Heating:EnergyTransfer:Zone:CABINE,hourly; !- [J]
Output:Meter,Cooling:EnergyTransfer,hourly; !- [J]
Output:Meter:Cumulative,Cooling:EnergyTransfer,hourly; !- [J]
Output:Meter,Cooling:EnergyTransfer:Zone:CABINE,hourly; !- [J]
Output:Meter:Cumulative,Cooling:EnergyTransfer:Zone:CABINE,hourly; !- [J]
Output:Meter,General:Cooling:EnergyTransfer,hourly; !- [J]
Output:Meter:Cumulative,General:Cooling:EnergyTransfer,hourly; !- [J]
Output:Meter,General:Cooling:EnergyTransfer:Zone:CABINE,hourly; !- [J]
Output:Meter:Cumulative,General:Cooling:EnergyTransfer:Zone:CABINE,hourly; !- [J]
Output:Meter,DistrictHeatingWater:Facility,hourly; !- [J]
Output:Meter:Cumulative,DistrictHeatingWater:Facility,hourly; !- [J]
Output:Meter,DistrictHeatingWater:HVAC,hourly; !- [J]
Output:Meter:Cumulative,DistrictHeatingWater:HVAC,hourly; !- [J]
Output:Meter,Heating:DistrictHeatingWater,hourly; !- [J]
Output:Meter:Cumulative,Heating:DistrictHeatingWater,hourly; !- [J]
Output:Meter,General:Heating:DistrictHeatingWater,hourly; !- [J]
Output:Meter:Cumulative,General:Heating:DistrictHeatingWater,hourly; !- [J]
Output:Meter,DistrictCooling:Facility,hourly; !- [J]
Output:Meter:Cumulative,DistrictCooling:Facility,hourly; !- [J]
Output:Meter,DistrictCooling:HVAC,hourly; !- [J]
Output:Meter:Cumulative,DistrictCooling:HVAC,hourly; !- [J]
Output:Meter,Cooling:DistrictCooling,hourly; !- [J]
Output:Meter:Cumulative,Cooling:DistrictCooling,hourly; !- [J]
Output:Meter,General:Cooling:DistrictCooling,hourly; !- [J]
Output:Meter:Cumulative,General:Cooling:DistrictCooling,hourly; !- [J]
Output:Meter,Carbon Equivalent:Facility,hourly; !- [kg]
Output:Meter:Cumulative,Carbon Equivalent:Facility,hourly; !- [kg]
Output:Meter,CarbonEquivalentEmissions:Carbon Equivalent,hourly; !- [kg]
Output:Meter:Cumulative,CarbonEquivalentEmissions:Carbon Equivalent,hourly; !- [kg]
